
 OpenBabel03102508543D

133141  0  0  1  0  0  0  0  0999 V2000
    0.9320    0.0584   -0.0443 C   0  0  0  0  0  0  0  0  0  0  0  0
    2.4520    0.0584   -0.0443 C   0  0  2  0  0  0  0  0  0  0  0  0
    4.8574    0.5652   -3.7268 C   0  0  0  0  0  0  0  0  0  0  0  0
    4.8189   -0.9006   -3.3263 C   0  0  0  0  0  0  0  0  0  0  0  0
    5.3927   -1.0589   -1.9277 C   0  0  2  0  0  0  0  0  0  0  0  0
    6.8307   -0.5668   -1.9112 C   0  0  2  0  0  0  0  0  0  0  0  0
    6.8692    0.8990   -2.3117 C   0  0  1  0  0  0  0  0  0  0  0  0
    3.1544   -0.5611    8.0456 C   0  0  1  0  0  0  0  0  0  0  0  0
    5.3567   -2.4282   -1.5535 O   0  0  0  0  0  0  0  0  0  0  0  0
    2.5806   -0.4028    6.6470 C   0  0  0  0  0  0  0  0  0  0  0  0
    3.4064   -1.2182    5.6653 C   0  0  2  0  0  0  0  0  0  0  0  0
    6.0434    1.7144   -1.3301 C   0  0  2  0  0  0  0  0  0  0  0  0
    4.6054    1.2222   -1.3465 C   0  0  0  0  0  0  0  0  0  0  0  0
    4.5669   -0.2435   -0.9460 C   0  0  0  0  0  0  0  0  0  0  0  0
    3.1288   -0.7356   -0.9624 C   0  0  1  0  0  0  0  0  0  0  0  0
    2.8327   -1.0599    4.2667 C   0  0  1  0  0  0  0  0  0  0  0  0
    3.6584   -1.8752    3.2850 C   0  0  0  0  0  0  0  0  0  0  0  0
    3.0847   -1.7169    1.8864 C   0  0  0  0  0  0  0  0  0  0  0  0
    3.6641   -2.3597    0.8367 C   0  0  0  0  0  0  0  0  0  0  0  0
    3.0903   -2.2014   -0.5619 C   0  0  2  0  0  0  0  0  0  0  0  0
    3.9161   -3.0168   -1.5436 C   0  0  0  0  0  0  0  0  0  0  0  0
    5.3542   -2.5247   -1.5271 C   0  0  0  0  0  0  0  0  0  0  0  0
    6.1799   -3.3400   -2.5088 C   0  0  1  0  0  0  0  0  0  0  0  0
    6.1414   -4.8058   -2.1083 C   0  0  0  0  0  0  0  0  0  0  0  0
    5.6439   -3.1921   -3.8154 O   0  0  0  0  0  0  0  0  0  0  0  0
    5.6731   -1.8267   -4.2043 C   0  0  1  0  0  0  0  0  0  0  0  0
    8.0705    2.1320   -6.2890 C   0  0  1  0  0  0  0  0  0  0  0  0
    6.6354    1.6315   -6.3041 C   0  0  2  0  0  0  0  0  0  0  0  0
    6.6042    0.1699   -5.8878 C   0  0  1  0  0  0  0  0  0  0  0  0
    5.1690   -0.3307   -5.9028 C   0  0  2  0  0  0  0  0  0  0  0  0
    5.1399   -1.6961   -5.5139 O   0  0  0  0  0  0  0  0  0  0  0  0
    4.5983   -0.1909   -7.3046 C   0  0  0  0  0  0  0  0  0  0  0  0
    4.6275    1.1745   -7.6935 O   0  0  0  0  0  0  0  0  0  0  0  0
    7.3826   -0.5972   -6.7944 O   0  0  0  0  0  0  0  0  0  0  0  0
    8.7451   -0.2012   -6.8500 C   0  0  1  0  0  0  0  0  0  0  0  0
   13.5475   -0.6290   -5.2628 C   0  0  1  0  0  0  0  0  0  0  0  0
   12.8929   -0.3828   -6.6123 C   0  0  1  0  0  0  0  0  0  0  0  0
   11.4344   -0.8067   -6.5529 C   0  0  2  0  0  0  0  0  0  0  0  0
   10.7798   -0.5606   -7.9025 C   0  0  1  0  0  0  0  0  0  0  0  0
    9.4173   -0.9566   -7.8469 O   0  0  0  0  0  0  0  0  0  0  0  0
   10.8642    0.9181   -8.2443 C   0  0  0  0  0  0  0  0  0  0  0  0
   10.7622   -0.0513   -5.5560 O   0  0  0  0  0  0  0  0  0  0  0  0
   12.9717    0.9985   -6.9317 O   0  0  0  0  0  0  0  0  0  0  0  0
   12.8753    0.1264   -4.2658 O   0  0  0  0  0  0  0  0  0  0  0  0
    6.1022    1.7621   -7.6137 O   0  0  0  0  0  0  0  0  0  0  0  0
    8.6037    2.0014   -4.9794 O   0  0  0  0  0  0  0  0  0  0  0  0
    9.9444    2.4691   -4.9654 C   0  0  1  0  0  0  0  0  0  0  0  0
   13.3158    6.2298   -4.4593 C   0  0  1  0  0  0  0  0  0  0  0  0
   13.2846    4.7682   -4.0430 C   0  0  1  0  0  0  0  0  0  0  0  0
   11.8494    4.2676   -4.0580 C   0  0  2  0  0  0  0  0  0  0  0  0
   11.8182    2.8061   -3.6417 C   0  0  1  0  0  0  0  0  0  0  0  0
   10.4775    2.3384   -3.6558 O   0  0  0  0  0  0  0  0  0  0  0  0
   12.6515    1.9850   -4.6123 C   0  0  0  0  0  0  0  0  0  0  0  0
   11.3163    4.3983   -5.3677 O   0  0  0  0  0  0  0  0  0  0  0  0
   14.0630    4.0011   -4.9497 O   0  0  0  0  0  0  0  0  0  0  0  0
   12.7826    6.3604   -5.7689 O   0  0  0  0  0  0  0  0  0  0  0  0
    1.6523   -2.6935   -0.5783 C   0  0  0  0  0  0  0  0  0  0  0  0
    6.8137    3.0051   -1.5560 C   0  0  0  0  0  0  0  0  0  0  0  0
    7.6565   -1.3821   -2.8929 C   0  0  0  0  0  0  0  0  0  0  0  0
    4.6212   -0.2972   -1.0106 O   0  0  0  0  0  0  0  0  0  0  0  0
    3.2778   -0.7569   -1.0259 C   0  0  0  0  0  0  0  0  0  0  0  0
    0.5753    0.7030    0.7318 H   0  0  0  0  0  0  0  0  0  0  0  0
    0.5753   -0.9359    0.1259 H   0  0  0  0  0  0  0  0  0  0  0  0
    0.5753    0.4082   -0.9905 H   0  0  0  0  0  0  0  0  0  0  0  0
    2.3918    0.3518    0.9830 H   0  0  0  0  0  0  0  0  0  0  0  0
    5.7898    1.0854   -3.6550 H   0  0  0  0  0  0  0  0  0  0  0  0
    4.6156    1.0387   -4.6554 H   0  0  0  0  0  0  0  0  0  0  0  0
    5.4002   -1.4745   -4.0173 H   0  0  0  0  0  0  0  0  0  0  0  0
    3.8066   -1.2470   -3.3379 H   0  0  0  0  0  0  0  0  0  0  0  0
    7.2346   -0.6782   -0.9267 H   0  0  0  0  0  0  0  0  0  0  0  0
    7.3237    1.1805   -3.2387 H   0  0  0  0  0  0  0  0  0  0  0  0
    3.0871   -0.5799    9.1133 H   0  0  0  0  0  0  0  0  0  0  0  0
    2.6077    0.6290    6.3650 H   0  0  0  0  0  0  0  0  0  0  0  0
    1.5683   -0.7492    6.6354 H   0  0  0  0  0  0  0  0  0  0  0  0
    3.7940   -1.8762    6.4148 H   0  0  0  0  0  0  0  0  0  0  0  0
    4.2015    1.3337   -2.3311 H   0  0  0  0  0  0  0  0  0  0  0  0
    4.0241    1.7962   -0.6555 H   0  0  0  0  0  0  0  0  0  0  0  0
    4.9708   -0.3550    0.0386 H   0  0  0  0  0  0  0  0  0  0  0  0
    5.1482   -0.8175   -1.6370 H   0  0  0  0  0  0  0  0  0  0  0  0
    2.5815   -0.2909   -1.7671 H   0  0  0  0  0  0  0  0  0  0  0  0
    2.0558   -0.5997    4.8408 H   0  0  0  0  0  0  0  0  0  0  0  0
    3.6313   -2.9070    3.5670 H   0  0  0  0  0  0  0  0  0  0  0  0
    4.6708   -1.5288    3.2966 H   0  0  0  0  0  0  0  0  0  0  0  0
    2.2557   -1.1217    1.7331 H   0  0  0  0  0  0  0  0  0  0  0  0
    3.5122   -2.9053   -2.5281 H   0  0  0  0  0  0  0  0  0  0  0  0
    3.8890   -4.0486   -1.2616 H   0  0  0  0  0  0  0  0  0  0  0  0
    5.7580   -2.6361   -0.5426 H   0  0  0  0  0  0  0  0  0  0  0  0
    5.3813   -1.4928   -1.8091 H   0  0  0  0  0  0  0  0  0  0  0  0
    7.1922   -2.9936   -2.4972 H   0  0  0  0  0  0  0  0  0  0  0  0
    7.0455   -5.2560   -1.7548 H   0  0  0  0  0  0  0  0  0  0  0  0
    5.8793   -5.6716   -2.6796 H   0  0  0  0  0  0  0  0  0  0  0  0
    5.5965   -1.7367   -3.1409 H   0  0  0  0  0  0  0  0  0  0  0  0
    8.6091    2.7535   -6.9736 H   0  0  0  0  0  0  0  0  0  0  0  0
    6.0488    2.2095   -5.6209 H   0  0  0  0  0  0  0  0  0  0  0  0
    7.0059    0.0715   -4.9010 H   0  0  0  0  0  0  0  0  0  0  0  0
    4.5825    0.2474   -5.2196 H   0  0  0  0  0  0  0  0  0  0  0  0
    3.5881   -0.5432   -7.3152 H   0  0  0  0  0  0  0  0  0  0  0  0
    5.1849   -0.7689   -7.9878 H   0  0  0  0  0  0  0  0  0  0  0  0
    4.0957    1.6986   -7.0742 H   0  0  0  0  0  0  0  0  0  0  0  0
    8.2832    0.6976   -6.4983 H   0  0  0  0  0  0  0  0  0  0  0  0
   14.5047   -1.0316   -5.0049 H   0  0  0  0  0  0  0  0  0  0  0  0
   13.3994   -0.9521   -7.3636 H   0  0  0  0  0  0  0  0  0  0  0  0
   11.3751   -1.8476   -6.3122 H   0  0  0  0  0  0  0  0  0  0  0  0
   11.2864   -1.1298   -8.6537 H   0  0  0  0  0  0  0  0  0  0  0  0
   10.3577    1.4873   -7.4931 H   0  0  0  0  0  0  0  0  0  0  0  0
   10.4034    1.0914   -9.1943 H   0  0  0  0  0  0  0  0  0  0  0  0
   11.8909    1.2165   -8.2862 H   0  0  0  0  0  0  0  0  0  0  0  0
   10.8160    0.8923   -5.7741 H   0  0  0  0  0  0  0  0  0  0  0  0
   12.5125    1.5145   -6.2507 H   0  0  0  0  0  0  0  0  0  0  0  0
   12.0246    0.4365   -4.6139 H   0  0  0  0  0  0  0  0  0  0  0  0
    6.6339    1.2381   -8.2330 H   0  0  0  0  0  0  0  0  0  0  0  0
    9.8485    2.1482   -5.9816 H   0  0  0  0  0  0  0  0  0  0  0  0
   13.8643    7.0630   -4.0723 H   0  0  0  0  0  0  0  0  0  0  0  0
   13.6863    4.6698   -3.0562 H   0  0  0  0  0  0  0  0  0  0  0  0
   11.2629    4.8457   -3.3749 H   0  0  0  0  0  0  0  0  0  0  0  0
   12.2200    2.7077   -2.6549 H   0  0  0  0  0  0  0  0  0  0  0  0
   12.2497    2.0834   -5.5991 H   0  0  0  0  0  0  0  0  0  0  0  0
   12.6295    0.9561   -4.3192 H   0  0  0  0  0  0  0  0  0  0  0  0
   13.6617    2.3373   -4.6017 H   0  0  0  0  0  0  0  0  0  0  0  0
   11.8480    3.8742   -5.9870 H   0  0  0  0  0  0  0  0  0  0  0  0
   13.6988    4.0903   -5.8442 H   0  0  0  0  0  0  0  0  0  0  0  0
   12.3101    5.5478   -6.0082 H   0  0  0  0  0  0  0  0  0  0  0  0
    1.0710   -2.1196    0.1127 H   0  0  0  0  0  0  0  0  0  0  0  0
    1.6252   -3.7254   -0.2964 H   0  0  0  0  0  0  0  0  0  0  0  0
    1.2484   -2.5821   -1.5629 H   0  0  0  0  0  0  0  0  0  0  0  0
    7.8596    2.8246   -1.4210 H   0  0  0  0  0  0  0  0  0  0  0  0
    6.4857    3.7436   -0.8545 H   0  0  0  0  0  0  0  0  0  0  0  0
    6.6378    3.3559   -2.5514 H   0  0  0  0  0  0  0  0  0  0  0  0
    7.2526   -1.2707   -3.8774 H   0  0  0  0  0  0  0  0  0  0  0  0
    7.6294   -2.4139   -2.6109 H   0  0  0  0  0  0  0  0  0  0  0  0
    8.6688   -1.0357   -2.8813 H   0  0  0  0  0  0  0  0  0  0  0  0
    3.2507   -1.7887   -0.7440 H   0  0  0  0  0  0  0  0  0  0  0  0
    2.8739   -0.6455   -2.0105 H   0  0  0  0  0  0  0  0  0  0  0  0
  1  2  1  0  0  0  0
  1 62  1  0  0  0  0
  1 63  1  0  0  0  0
  1 64  1  0  0  0  0
  2  3  1  0  0  0  0
  2 61  1  0  0  0  0
  2 65  1  1  0  0  0
  3  4  1  0  0  0  0
  3 66  1  0  0  0  0
  3 67  1  0  0  0  0
  4  5  1  0  0  0  0
  4 68  1  0  0  0  0
  4 69  1  0  0  0  0
  5  6  1  0  0  0  0
  5  9  1  1  0  0  0
  5 60  1  0  0  0  0
  6  7  1  0  0  0  0
  6 59  1  0  0  0  0
  6 70  1  1  0  0  0
  7  8  1  0  0  0  0
  7 12  1  0  0  0  0
  7 71  1  6  0  0  0
  8  9  1  0  0  0  0
  8 10  1  0  0  0  0
  8 72  1  6  0  0  0
 10 11  1  0  0  0  0
 10 73  1  0  0  0  0
 10 74  1  0  0  0  0
 11 12  1  0  0  0  0
 11 16  1  0  0  0  0
 11 75  1  1  0  0  0
 12 13  1  0  0  0  0
 12 58  1  6  0  0  0
 13 14  1  0  0  0  0
 13 76  1  0  0  0  0
 13 77  1  0  0  0  0
 14 15  1  0  0  0  0
 14 78  1  0  0  0  0
 14 79  1  0  0  0  0
 15 16  1  0  0  0  0
 15 20  1  0  0  0  0
 15 80  1  1  0  0  0
 16 17  1  0  0  0  0
 16 81  1  1  0  0  0
 17 18  1  0  0  0  0
 17 82  1  0  0  0  0
 17 83  1  0  0  0  0
 18 19  2  0  0  0  0
 18 84  1  0  0  0  0
 19 20  1  0  0  0  0
 19 24  1  0  0  0  0
 20 21  1  0  0  0  0
 20 57  1  6  0  0  0
 21 22  1  0  0  0  0
 21 85  1  0  0  0  0
 21 86  1  0  0  0  0
 22 23  1  0  0  0  0
 22 87  1  0  0  0  0
 22 88  1  0  0  0  0
 23 24  1  0  0  0  0
 23 25  1  0  0  0  0
 23 89  1  1  0  0  0
 24 90  1  0  0  0  0
 24 91  1  0  0  0  0
 25 26  1  0  0  0  0
 26 27  1  0  0  0  0
 26 31  1  0  0  0  0
 26 92  1  1  0  0  0
 27 28  1  0  0  0  0
 27 46  1  0  0  0  0
 27 93  1  6  0  0  0
 28 29  1  0  0  0  0
 28 45  1  0  0  0  0
 28 94  1  1  0  0  0
 29 30  1  0  0  0  0
 29 34  1  0  0  0  0
 29 95  1  1  0  0  0
 30 31  1  0  0  0  0
 30 32  1  0  0  0  0
 30 96  1  1  0  0  0
 32 33  1  0  0  0  0
 32 97  1  0  0  0  0
 32 98  1  0  0  0  0
 33 99  1  0  0  0  0
 34 35  1  0  0  0  0
 35 36  1  0  0  0  0
 35 40  1  0  0  0  0
 35100  1  6  0  0  0
 36 37  1  0  0  0  0
 36 44  1  0  0  0  0
 36101  1  1  0  0  0
 37 38  1  0  0  0  0
 37 43  1  0  0  0  0
 37102  1  6  0  0  0
 38 39  1  0  0  0  0
 38 42  1  0  0  0  0
 38103  1  1  0  0  0
 39 40  1  0  0  0  0
 39 41  1  0  0  0  0
 39104  1  6  0  0  0
 41105  1  0  0  0  0
 41106  1  0  0  0  0
 41107  1  0  0  0  0
 42108  1  0  0  0  0
 43109  1  0  0  0  0
 44110  1  0  0  0  0
 45111  1  0  0  0  0
 46 47  1  0  0  0  0
 47 48  1  0  0  0  0
 47 52  1  0  0  0  0
 47112  1  6  0  0  0
 48 49  1  0  0  0  0
 48 56  1  0  0  0  0
 48113  1  1  0  0  0
 49 50  1  0  0  0  0
 49 55  1  0  0  0  0
 49114  1  1  0  0  0
 50 51  1  0  0  0  0
 50 54  1  0  0  0  0
 50115  1  1  0  0  0
 51 52  1  0  0  0  0
 51 53  1  0  0  0  0
 51116  1  1  0  0  0
 53117  1  0  0  0  0
 53118  1  0  0  0  0
 53119  1  0  0  0  0
 54120  1  0  0  0  0
 55121  1  0  0  0  0
 56122  1  0  0  0  0
 57123  1  0  0  0  0
 57124  1  0  0  0  0
 57125  1  0  0  0  0
 58126  1  0  0  0  0
 58127  1  0  0  0  0
 58128  1  0  0  0  0
 59129  1  0  0  0  0
 59130  1  0  0  0  0
 59131  1  0  0  0  0
 60 61  1  0  0  0  0
 61132  1  0  0  0  0
 61133  1  0  0  0  0
M  END
$$$$
