
 OpenBabel03102508543D

 72 76  0  0  1  0  0  0  0  0999 V2000
    5.9235    1.0801   -1.8590 C   0  0  0  0  0  0  0  0  0  0  0  0
    6.0821   -0.4191   -1.6651 C   0  0  1  0  0  0  0  0  0  0  0  0
    6.8130   -5.0740   -3.5525 C   0  0  1  0  0  0  0  0  0  0  0  0
    7.2841   -4.3488   -2.3025 C   0  0  2  0  0  0  0  0  0  0  0  0
    7.1256   -2.8496   -2.4965 C   0  0  2  0  0  0  0  0  0  0  0  0
    7.5967   -2.1243   -1.2465 C   0  0  1  0  0  0  0  0  0  0  0  0
    7.4485   -0.7238   -1.4277 O   0  0  0  0  0  0  0  0  0  0  0  0
    6.8184   -2.5427   -0.1349 O   0  0  0  0  0  0  0  0  0  0  0  0
    6.0324   -1.8026    0.7874 C   0  0  0  0  0  0  0  0  0  0  0  0
    5.2603   -2.7018    1.7391 C   0  0  2  0  0  0  0  0  0  0  0  0
    8.3384   -5.3556    4.7802 C   0  0  2  0  0  0  0  0  0  0  0  0
    7.4205   -5.7148    3.6231 C   0  0  1  0  0  0  0  0  0  0  0  0
    6.4193   -4.5924    3.4034 C   0  0  2  0  0  0  0  0  0  0  0  0
    5.5014   -4.9516    2.2463 C   0  0  1  0  0  0  0  0  0  0  0  0
    4.5660   -3.9031    2.0410 O   0  0  0  0  0  0  0  0  0  0  0  0
    6.2735   -5.1344    1.0687 O   0  0  0  0  0  0  0  0  0  0  0  0
    7.2826   -6.1327    1.0280 C   0  0  0  0  0  0  0  0  0  0  0  0
    7.5350   -6.9491    2.1872 C   0  0  0  0  0  0  0  0  0  0  0  0
    6.8148   -6.7659    3.3088 O   0  0  0  0  0  0  0  0  0  0  0  0
    5.8587   -5.8200    3.3474 C   0  0  0  0  0  0  0  0  0  0  0  0
    5.0878   -5.6239    4.5480 C   0  0  0  0  0  0  0  0  0  0  0  0
    4.0643   -4.6115    4.5893 C   0  0  0  0  0  0  0  0  0  0  0  0
    3.8119   -3.7951    3.4300 C   0  0  0  0  0  0  0  0  0  0  0  0
    4.5828   -3.9911    2.2294 C   0  0  0  0  0  0  0  0  0  0  0  0
    5.6062   -5.0036    2.1881 C   0  0  0  0  0  0  0  0  0  0  0  0
    8.0535   -6.3287   -0.1726 C   0  0  0  0  0  0  0  0  0  0  0  0
    7.8307   -5.6083   -1.1956 O   0  0  0  0  0  0  0  0  0  0  0  0
    4.3339   -3.1862    1.0864 O   0  0  0  0  0  0  0  0  0  0  0  0
    3.3042   -4.4182    5.7730 O   0  0  0  0  0  0  0  0  0  0  0  0
    8.6151   -8.0176    2.1437 C   0  0  0  0  0  0  0  0  0  0  0  0
    8.8676   -8.8340    3.3030 C   0  0  0  0  0  0  0  0  0  0  0  0
    9.8910   -9.8465    3.2617 C   0  0  0  0  0  0  0  0  0  0  0  0
   10.1435  -10.6629    4.4209 C   0  0  0  0  0  0  0  0  0  0  0  0
    9.3725  -10.4668    5.6215 C   0  0  0  0  0  0  0  0  0  0  0  0
    9.3861   -8.2137    0.9431 C   0  0  0  0  0  0  0  0  0  0  0  0
   11.1525  -11.6612    4.3802 O   0  0  0  0  0  0  0  0  0  0  0  0
    7.1136   -3.3911    3.1014 O   0  0  0  0  0  0  0  0  0  0  0  0
    8.1926   -5.8976    2.4455 O   0  0  0  0  0  0  0  0  0  0  0  0
    8.8337   -6.1332    5.8602 O   0  0  0  0  0  0  0  0  0  0  0  0
    5.7591   -2.5449   -2.7339 O   0  0  0  0  0  0  0  0  0  0  0  0
    8.6506   -4.6534   -2.0652 O   0  0  0  0  0  0  0  0  0  0  0  0
    5.4466   -4.7694   -3.7899 O   0  0  0  0  0  0  0  0  0  0  0  0
    4.8938    1.3097   -2.0379 H   0  0  0  0  0  0  0  0  0  0  0  0
    6.5099    1.3954   -2.6967 H   0  0  0  0  0  0  0  0  0  0  0  0
    6.2551    1.5907   -0.9791 H   0  0  0  0  0  0  0  0  0  0  0  0
    5.0760   -0.2732   -1.3314 H   0  0  0  0  0  0  0  0  0  0  0  0
    7.2251   -5.9064   -4.0839 H   0  0  0  0  0  0  0  0  0  0  0  0
    6.6977   -4.6641   -1.4649 H   0  0  0  0  0  0  0  0  0  0  0  0
    7.7120   -2.5343   -3.3342 H   0  0  0  0  0  0  0  0  0  0  0  0
    8.6263   -2.3539   -1.0677 H   0  0  0  0  0  0  0  0  0  0  0  0
    5.3361   -1.2012    0.2412 H   0  0  0  0  0  0  0  0  0  0  0  0
    6.6951   -1.1994    1.3722 H   0  0  0  0  0  0  0  0  0  0  0  0
    4.6009   -1.8822    1.5434 H   0  0  0  0  0  0  0  0  0  0  0  0
    9.1906   -5.0974    5.3734 H   0  0  0  0  0  0  0  0  0  0  0  0
    6.8973   -6.6200    3.8506 H   0  0  0  0  0  0  0  0  0  0  0  0
    5.8375   -4.4547    4.2907 H   0  0  0  0  0  0  0  0  0  0  0  0
    4.9782   -5.8568    2.4738 H   0  0  0  0  0  0  0  0  0  0  0  0
    5.2687   -6.2090    5.3787 H   0  0  0  0  0  0  0  0  0  0  0  0
    3.0785   -3.0696    3.4596 H   0  0  0  0  0  0  0  0  0  0  0  0
    3.6681   -2.5275    1.1133 H   0  0  0  0  0  0  0  0  0  0  0  0
    3.4685   -4.9493    6.5272 H   0  0  0  0  0  0  0  0  0  0  0  0
    8.3152   -8.6935    4.1632 H   0  0  0  0  0  0  0  0  0  0  0  0
   10.4434   -9.9870    2.4014 H   0  0  0  0  0  0  0  0  0  0  0  0
    9.0709  -10.6338    6.5942 H   0  0  0  0  0  0  0  0  0  0  0  0
    9.6877   -8.0467   -0.0296 H   0  0  0  0  0  0  0  0  0  0  0  0
   11.6541  -11.7887    3.5991 H   0  0  0  0  0  0  0  0  0  0  0  0
    7.6411   -3.5160    2.2970 H   0  0  0  0  0  0  0  0  0  0  0  0
    8.6669   -5.0770    2.2392 H   0  0  0  0  0  0  0  0  0  0  0  0
    8.2817   -6.9233    5.9695 H   0  0  0  0  0  0  0  0  0  0  0  0
    5.2275   -2.8307   -1.9745 H   0  0  0  0  0  0  0  0  0  0  0  0
    9.1822   -4.3676   -2.8246 H   0  0  0  0  0  0  0  0  0  0  0  0
    5.1891   -4.0015   -3.2561 H   0  0  0  0  0  0  0  0  0  0  0  0
  1  2  1  0  0  0  0
  1 43  1  0  0  0  0
  1 44  1  0  0  0  0
  1 45  1  0  0  0  0
  2  3  1  0  0  0  0
  2  7  1  0  0  0  0
  2 46  1  1  0  0  0
  3  4  1  0  0  0  0
  3 42  1  0  0  0  0
  3 47  1  6  0  0  0
  4  5  1  0  0  0  0
  4 41  1  0  0  0  0
  4 48  1  1  0  0  0
  5  6  1  0  0  0  0
  5 40  1  0  0  0  0
  5 49  1  6  0  0  0
  6  7  1  0  0  0  0
  6  8  1  0  0  0  0
  6 50  1  1  0  0  0
  8  9  1  0  0  0  0
  9 51  1  0  0  0  0
  9 52  1  0  0  0  0
 10 11  1  0  0  0  0
 10 15  1  0  0  0  0
 10  9  1  0  0  0  0
 10 53  1  1  0  0  0
 11 12  1  0  0  0  0
 11 39  1  0  0  0  0
 11 54  1  6  0  0  0
 12 13  1  0  0  0  0
 12 38  1  0  0  0  0
 12 55  1  1  0  0  0
 13 14  1  0  0  0  0
 13 37  1  0  0  0  0
 13 56  1  1  0  0  0
 14 15  1  0  0  0  0
 14 16  1  0  0  0  0
 14 57  1  1  0  0  0
 16 17  1  0  0  0  0
 17 18  2  0  0  0  0
 17 26  1  0  0  0  0
 18 19  1  0  0  0  0
 18 30  1  0  0  0  0
 19 20  1  0  0  0  0
 20 21  2  0  0  0  0
 20 25  1  0  0  0  0
 21 22  1  0  0  0  0
 21 58  1  0  0  0  0
 22 23  2  0  0  0  0
 22 29  1  0  0  0  0
 23 24  1  0  0  0  0
 23 59  1  0  0  0  0
 24 25  2  0  0  0  0
 24 28  1  0  0  0  0
 25 26  1  0  0  0  0
 26 27  2  0  0  0  0
 28 60  1  0  0  0  0
 29 61  1  0  0  0  0
 30 31  2  0  0  0  0
 30 35  1  0  0  0  0
 31 32  1  0  0  0  0
 31 62  1  0  0  0  0
 32 33  2  0  0  0  0
 32 63  1  0  0  0  0
 33 34  1  0  0  0  0
 33 36  1  0  0  0  0
 34 35  2  0  0  0  0
 34 64  1  0  0  0  0
 35 65  1  0  0  0  0
 36 66  1  0  0  0  0
 37 67  1  0  0  0  0
 38 68  1  0  0  0  0
 39 69  1  0  0  0  0
 40 70  1  0  0  0  0
 41 71  1  0  0  0  0
 42 72  1  0  0  0  0
M  END
$$$$
