
 OpenBabel03102508543D

153162  0  0  1  0  0  0  0  0999 V2000
   12.4476   15.1884    7.6762 C   0  0  0  0  0  0  0  0  0  0  0  0
   13.0953   14.3543    8.7695 C   0  0  2  0  0  0  0  0  0  0  0  0
   16.7381   11.9271    8.1040 C   0  0  0  0  0  0  0  0  0  0  0  0
   15.5079   11.0343    8.0981 C   0  0  0  0  0  0  0  0  0  0  0  0
   14.7807   11.1651    9.4264 C   0  0  2  0  0  0  0  0  0  0  0  0
   15.7073   10.7434   10.5551 C   0  0  2  0  0  0  0  0  0  0  0  0
   16.9375   11.6362   10.5610 C   0  0  1  0  0  0  0  0  0  0  0  0
    5.3735    8.6032    2.9907 C   0  0  1  0  0  0  0  0  0  0  0  0
   13.6314   10.3310    9.4210 O   0  0  0  0  0  0  0  0  0  0  0  0
    6.1060    7.9884    4.1721 C   0  0  0  0  0  0  0  0  0  0  0  0
    7.4156    8.7267    4.3963 C   0  0  2  0  0  0  0  0  0  0  0  0
   16.5137   13.0814   10.7665 C   0  0  2  0  0  0  0  0  0  0  0  0
   15.5870   13.5031    9.6378 C   0  0  0  0  0  0  0  0  0  0  0  0
   16.2531   13.4042    8.5600 O   0  0  0  0  0  0  0  0  0  0  0  0
   14.2775   12.7647    9.4137 C   0  0  0  0  0  0  0  0  0  0  0  0
   13.5450   13.3796    8.2322 C   0  0  1  0  0  0  0  0  0  0  0  0
    8.1481    8.1119    5.5777 C   0  0  1  0  0  0  0  0  0  0  0  0
    9.4577    8.8502    5.8019 C   0  0  0  0  0  0  0  0  0  0  0  0
   10.1902    8.2354    6.9833 C   0  0  0  0  0  0  0  0  0  0  0  0
   11.4998    8.9737    7.2075 C   0  0  2  0  0  0  0  0  0  0  0  0
   12.2354   12.6412    8.0081 C   0  0  2  0  0  0  0  0  0  0  0  0
   12.5224   11.1766    7.7198 C   0  0  0  0  0  0  0  0  0  0  0  0
   13.2549   10.5618    8.9013 C   0  0  0  0  0  0  0  0  0  0  0  0
   13.5418    9.0972    8.6130 C   0  0  1  0  0  0  0  0  0  0  0  0
   12.2323    8.3589    8.3889 C   0  0  0  0  0  0  0  0  0  0  0  0
   14.3491    8.9932    7.4494 O   0  0  0  0  0  0  0  0  0  0  0  0
   15.5726    9.6828    7.6584 C   0  0  1  0  0  0  0  0  0  0  0  0
   20.3783    9.7769    9.2900 C   0  0  1  0  0  0  0  0  0  0  0  0
   19.6456   10.3915    8.1086 C   0  0  2  0  0  0  0  0  0  0  0  0
   18.3358    9.6533    7.8849 C   0  0  2  0  0  0  0  0  0  0  0  0
   17.6031   10.2680    6.7035 C   0  0  2  0  0  0  0  0  0  0  0  0
   16.3795    9.5784    6.4946 O   0  0  0  0  0  0  0  0  0  0  0  0
   18.4669   10.1562    5.4578 C   0  0  0  0  0  0  0  0  0  0  0  0
   19.6904   10.8458    5.6667 O   0  0  0  0  0  0  0  0  0  0  0  0
   17.5289    9.7578    9.0487 O   0  0  0  0  0  0  0  0  0  0  0  0
   18.2134    9.1836   10.1524 C   0  0  1  0  0  0  0  0  0  0  0  0
   21.4432    9.5756   14.0485 C   0  0  1  0  0  0  0  0  0  0  0  0
   20.1335    8.8374   13.8249 C   0  0  2  0  0  0  0  0  0  0  0  0
   19.4008    9.4521   12.6435 C   0  0  1  0  0  0  0  0  0  0  0  0
   18.0910    8.7139   12.4199 C   0  0  2  0  0  0  0  0  0  0  0  0
   17.4065    9.2881   11.3162 O   0  0  0  0  0  0  0  0  0  0  0  0
   17.2273    8.8257   13.6656 C   0  0  0  0  0  0  0  0  0  0  0  0
   17.9118    8.2515   14.7693 O   0  0  0  0  0  0  0  0  0  0  0  0
   19.1329   10.8204   12.9125 O   0  0  0  0  0  0  0  0  0  0  0  0
   19.3266    8.9419   14.9887 O   0  0  0  0  0  0  0  0  0  0  0  0
   19.9574    8.5280   16.1917 C   0  0  1  0  0  0  0  0  0  0  0  0
   24.2170    9.3281   19.7604 C   0  0  1  0  0  0  0  0  0  0  0  0
   23.3442    9.0727   18.5425 C   0  0  2  0  0  0  0  0  0  0  0  0
   22.3725   10.2279   18.3644 C   0  0  1  0  0  0  0  0  0  0  0  0
   21.4996    9.9726   17.1464 C   0  0  0  0  0  0  0  0  0  0  0  0
   20.7728    8.7665   17.3295 O   0  0  0  0  0  0  0  0  0  0  0  0
   21.5532   10.3396   19.5188 O   0  0  0  0  0  0  0  0  0  0  0  0
   22.6173    7.8667   18.7255 O   0  0  0  0  0  0  0  0  0  0  0  0
   24.9439   10.5342   19.5774 O   0  0  0  0  0  0  0  0  0  0  0  0
   22.2501    9.4711   12.8848 O   0  0  0  0  0  0  0  0  0  0  0  0
   23.4737   10.1608   13.0937 C   0  0  1  0  0  0  0  0  0  0  0  0
   28.2794   10.2548   14.7253 C   0  0  1  0  0  0  0  0  0  0  0  0
   27.5467   10.8695   13.5439 C   0  0  2  0  0  0  0  0  0  0  0  0
   26.2369   10.1313   13.3202 C   0  0  2  0  0  0  0  0  0  0  0  0
   25.5042   10.7459   12.1388 C   0  0  2  0  0  0  0  0  0  0  0  0
   24.2806   10.0563   11.9299 O   0  0  0  0  0  0  0  0  0  0  0  0
   26.3679   10.6341   10.8931 C   0  0  0  0  0  0  0  0  0  0  0  0
   27.5915   11.3237   11.1020 O   0  0  0  0  0  0  0  0  0  0  0  0
   25.4300   10.2358   14.4840 O   0  0  0  0  0  0  0  0  0  0  0  0
   28.3536   10.7650   12.3801 O   0  0  0  0  0  0  0  0  0  0  0  0
   27.4725   10.3593   15.8891 O   0  0  0  0  0  0  0  0  0  0  0  0
   20.4525   10.2871    6.9448 O   0  0  0  0  0  0  0  0  0  0  0  0
   19.5714    9.8814   10.4538 O   0  0  0  0  0  0  0  0  0  0  0  0
   11.4646   13.9316    8.2340 C   0  0  0  0  0  0  0  0  0  0  0  0
   17.3183   13.8455   11.8053 C   0  0  0  0  0  0  0  0  0  0  0  0
   16.1311    9.2982   10.3496 C   0  0  0  0  0  0  0  0  0  0  0  0
   14.3848   12.5152    9.6184 O   0  0  0  0  0  0  0  0  0  0  0  0
   13.5191   12.9091    8.5640 C   0  0  0  0  0  0  0  0  0  0  0  0
   12.2388   16.1683    8.0517 H   0  0  0  0  0  0  0  0  0  0  0  0
   11.5352   14.7233    7.3661 H   0  0  0  0  0  0  0  0  0  0  0  0
   13.1129   15.2606    6.8413 H   0  0  0  0  0  0  0  0  0  0  0  0
   12.6257   15.0150    9.4680 H   0  0  0  0  0  0  0  0  0  0  0  0
   17.4334   11.8258    8.9110 H   0  0  0  0  0  0  0  0  0  0  0  0
   17.5228   12.0341    7.3845 H   0  0  0  0  0  0  0  0  0  0  0  0
   15.8062   10.0170    7.9535 H   0  0  0  0  0  0  0  0  0  0  0  0
   14.8556   11.3311    7.3036 H   0  0  0  0  0  0  0  0  0  0  0  0
   15.1954   10.8355   11.4902 H   0  0  0  0  0  0  0  0  0  0  0  0
   17.9812   11.5545   10.7821 H   0  0  0  0  0  0  0  0  0  0  0  0
    4.5874    8.6135    2.2648 H   0  0  0  0  0  0  0  0  0  0  0  0
    6.3080    6.9574    3.9692 H   0  0  0  0  0  0  0  0  0  0  0  0
    5.4978    8.0668    5.0489 H   0  0  0  0  0  0  0  0  0  0  0  0
    7.1082    9.1483    3.4621 H   0  0  0  0  0  0  0  0  0  0  0  0
   13.6692   12.8431   10.2905 H   0  0  0  0  0  0  0  0  0  0  0  0
   14.4795   11.7337    9.2108 H   0  0  0  0  0  0  0  0  0  0  0  0
   14.1397   14.2531    8.0643 H   0  0  0  0  0  0  0  0  0  0  0  0
    7.5534    7.2384    5.7456 H   0  0  0  0  0  0  0  0  0  0  0  0
    9.2557    9.8812    6.0048 H   0  0  0  0  0  0  0  0  0  0  0  0
   10.0659    8.7718    4.9251 H   0  0  0  0  0  0  0  0  0  0  0  0
   10.3922    7.2044    6.7804 H   0  0  0  0  0  0  0  0  0  0  0  0
    9.5819    8.3138    7.8601 H   0  0  0  0  0  0  0  0  0  0  0  0
   11.7322    8.8887    6.1665 H   0  0  0  0  0  0  0  0  0  0  0  0
   13.1306   11.0982    6.8430 H   0  0  0  0  0  0  0  0  0  0  0  0
   11.6005   10.6569    7.5621 H   0  0  0  0  0  0  0  0  0  0  0  0
   12.6466   10.6402    9.7781 H   0  0  0  0  0  0  0  0  0  0  0  0
   14.1767   11.0816    9.0591 H   0  0  0  0  0  0  0  0  0  0  0  0
   14.0575    8.6644    9.4447 H   0  0  0  0  0  0  0  0  0  0  0  0
   11.6240    8.4373    9.2657 H   0  0  0  0  0  0  0  0  0  0  0  0
   12.4343    7.3279    8.1860 H   0  0  0  0  0  0  0  0  0  0  0  0
   14.9166   10.2257    8.3063 H   0  0  0  0  0  0  0  0  0  0  0  0
   21.4115    9.5392    9.4344 H   0  0  0  0  0  0  0  0  0  0  0  0
   19.4438   11.4226    8.3113 H   0  0  0  0  0  0  0  0  0  0  0  0
   18.5377    8.6223    7.6822 H   0  0  0  0  0  0  0  0  0  0  0  0
   17.4013   11.2991    6.9062 H   0  0  0  0  0  0  0  0  0  0  0  0
   17.9511   10.5888    4.6261 H   0  0  0  0  0  0  0  0  0  0  0  0
   18.6687    9.1251    5.2551 H   0  0  0  0  0  0  0  0  0  0  0  0
   19.5075   11.7805    5.8505 H   0  0  0  0  0  0  0  0  0  0  0  0
   18.6291    8.6261    9.3392 H   0  0  0  0  0  0  0  0  0  0  0  0
   21.9242    9.9049   14.9458 H   0  0  0  0  0  0  0  0  0  0  0  0
   20.3353    7.8064   13.6222 H   0  0  0  0  0  0  0  0  0  0  0  0
   20.0088    9.3733   11.7666 H   0  0  0  0  0  0  0  0  0  0  0  0
   18.2928    7.6828   12.2172 H   0  0  0  0  0  0  0  0  0  0  0  0
   16.3053    8.3060   13.5082 H   0  0  0  0  0  0  0  0  0  0  0  0
   17.0255    9.8568   13.8683 H   0  0  0  0  0  0  0  0  0  0  0  0
   18.0947    7.3168   14.5855 H   0  0  0  0  0  0  0  0  0  0  0  0
   18.5817   10.8918   13.7075 H   0  0  0  0  0  0  0  0  0  0  0  0
   19.1810    8.0020   15.6764 H   0  0  0  0  0  0  0  0  0  0  0  0
   24.6924    9.0162   20.6669 H   0  0  0  0  0  0  0  0  0  0  0  0
   23.9615    8.9886   17.6726 H   0  0  0  0  0  0  0  0  0  0  0  0
   22.9202   11.1367   18.2264 H   0  0  0  0  0  0  0  0  0  0  0  0
   22.1170    9.8884   16.2765 H   0  0  0  0  0  0  0  0  0  0  0  0
   20.8156   10.7857   17.0210 H   0  0  0  0  0  0  0  0  0  0  0  0
   21.0567    9.5157   19.6438 H   0  0  0  0  0  0  0  0  0  0  0  0
   22.0577    7.9430   19.5141 H   0  0  0  0  0  0  0  0  0  0  0  0
   24.6386   10.9763   18.7697 H   0  0  0  0  0  0  0  0  0  0  0  0
   22.8177   10.7037   13.7416 H   0  0  0  0  0  0  0  0  0  0  0  0
   29.3126   10.0171   14.8697 H   0  0  0  0  0  0  0  0  0  0  0  0
   27.3449   11.9005   13.7466 H   0  0  0  0  0  0  0  0  0  0  0  0
   26.4387    9.1002   13.1175 H   0  0  0  0  0  0  0  0  0  0  0  0
   25.3024   11.7770   12.3415 H   0  0  0  0  0  0  0  0  0  0  0  0
   25.8522   11.0668   10.0614 H   0  0  0  0  0  0  0  0  0  0  0  0
   26.5698    9.6030   10.6904 H   0  0  0  0  0  0  0  0  0  0  0  0
   27.4086   12.2584   11.2858 H   0  0  0  0  0  0  0  0  0  0  0  0
   25.2471   11.1705   14.6678 H   0  0  0  0  0  0  0  0  0  0  0  0
   28.5365    9.8303   12.1963 H   0  0  0  0  0  0  0  0  0  0  0  0
   26.5625   10.5769   15.6331 H   0  0  0  0  0  0  0  0  0  0  0  0
   20.6354    9.3524    6.7610 H   0  0  0  0  0  0  0  0  0  0  0  0
   18.6614   10.0989   10.1978 H   0  0  0  0  0  0  0  0  0  0  0  0
   12.1515   14.7267    8.4362 H   0  0  0  0  0  0  0  0  0  0  0  0
   10.8035   13.8111    9.0667 H   0  0  0  0  0  0  0  0  0  0  0  0
   10.8961   14.1655    7.3582 H   0  0  0  0  0  0  0  0  0  0  0  0
   17.8476   13.1533   12.4264 H   0  0  0  0  0  0  0  0  0  0  0  0
   16.6569   14.4320   12.4081 H   0  0  0  0  0  0  0  0  0  0  0  0
   18.0170   14.4890   11.3127 H   0  0  0  0  0  0  0  0  0  0  0  0
   16.6431    9.2062    9.4146 H   0  0  0  0  0  0  0  0  0  0  0  0
   15.2651    8.6698   10.3455 H   0  0  0  0  0  0  0  0  0  0  0  0
   16.7834    9.0014   11.1441 H   0  0  0  0  0  0  0  0  0  0  0  0
   12.6531   12.2807    8.5599 H   0  0  0  0  0  0  0  0  0  0  0  0
   14.0310   12.8171    7.6290 H   0  0  0  0  0  0  0  0  0  0  0  0
  1  2  1  0  0  0  0
  1 74  1  0  0  0  0
  1 75  1  0  0  0  0
  1 76  1  0  0  0  0
  2  3  1  0  0  0  0
  2 73  1  0  0  0  0
  2 77  1  1  0  0  0
  3  4  1  0  0  0  0
  3 78  1  0  0  0  0
  3 79  1  0  0  0  0
  4  5  1  0  0  0  0
  4 80  1  0  0  0  0
  4 81  1  0  0  0  0
  5  6  1  0  0  0  0
  5  9  1  6  0  0  0
  5 72  1  0  0  0  0
  6  7  1  0  0  0  0
  6 71  1  0  0  0  0
  6 82  1  1  0  0  0
  7  8  1  0  0  0  0
  7 12  1  0  0  0  0
  7 83  1  6  0  0  0
  8  9  1  0  0  0  0
  8 10  1  0  0  0  0
  8 84  1  1  0  0  0
 10 11  1  0  0  0  0
 10 85  1  0  0  0  0
 10 86  1  0  0  0  0
 11 12  1  0  0  0  0
 11 17  1  0  0  0  0
 11 87  1  1  0  0  0
 12 13  1  0  0  0  0
 12 70  1  1  0  0  0
 13 15  1  0  0  0  0
 13 14  2  0  0  0  0
 15 16  1  0  0  0  0
 15 88  1  0  0  0  0
 15 89  1  0  0  0  0
 16 17  1  0  0  0  0
 16 21  1  0  0  0  0
 16 90  1  6  0  0  0
 17 18  1  0  0  0  0
 17 91  1  6  0  0  0
 18 19  1  0  0  0  0
 18 92  1  0  0  0  0
 18 93  1  0  0  0  0
 19 20  1  0  0  0  0
 19 94  1  0  0  0  0
 19 95  1  0  0  0  0
 20 21  1  0  0  0  0
 20 25  1  0  0  0  0
 20 96  1  1  0  0  0
 21 22  1  0  0  0  0
 21 69  1  6  0  0  0
 22 23  1  0  0  0  0
 22 97  1  0  0  0  0
 22 98  1  0  0  0  0
 23 24  1  0  0  0  0
 23 99  1  0  0  0  0
 23100  1  0  0  0  0
 24 25  1  0  0  0  0
 24 26  1  0  0  0  0
 24101  1  1  0  0  0
 25102  1  0  0  0  0
 25103  1  0  0  0  0
 26 27  1  0  0  0  0
 27 28  1  0  0  0  0
 27 32  1  0  0  0  0
 27104  1  1  0  0  0
 28 29  1  0  0  0  0
 28 68  1  0  0  0  0
 28105  1  6  0  0  0
 29 30  1  0  0  0  0
 29 67  1  0  0  0  0
 29106  1  1  0  0  0
 30 31  1  0  0  0  0
 30 35  1  0  0  0  0
 30107  1  6  0  0  0
 31 32  1  0  0  0  0
 31 33  1  0  0  0  0
 31108  1  1  0  0  0
 33 34  1  0  0  0  0
 33109  1  0  0  0  0
 33110  1  0  0  0  0
 34111  1  0  0  0  0
 35 36  1  0  0  0  0
 36 37  1  0  0  0  0
 36 41  1  0  0  0  0
 36112  1  6  0  0  0
 37 38  1  0  0  0  0
 37 55  1  0  0  0  0
 37113  1  1  0  0  0
 38 39  1  0  0  0  0
 38 45  1  0  0  0  0
 38114  1  6  0  0  0
 39 40  1  0  0  0  0
 39 44  1  0  0  0  0
 39115  1  6  0  0  0
 40 41  1  0  0  0  0
 40 42  1  0  0  0  0
 40116  1  6  0  0  0
 42 43  1  0  0  0  0
 42117  1  0  0  0  0
 42118  1  0  0  0  0
 43119  1  0  0  0  0
 44120  1  0  0  0  0
 46 47  1  0  0  0  0
 46 51  1  0  0  0  0
 46 45  1  0  0  0  0
 46121  1  1  0  0  0
 47 48  1  0  0  0  0
 47 54  1  0  0  0  0
 47122  1  1  0  0  0
 48 49  1  0  0  0  0
 48 53  1  0  0  0  0
 48123  1  6  0  0  0
 49 50  1  0  0  0  0
 49 52  1  0  0  0  0
 49124  1  6  0  0  0
 50 51  1  0  0  0  0
 50125  1  0  0  0  0
 50126  1  0  0  0  0
 52127  1  0  0  0  0
 53128  1  0  0  0  0
 54129  1  0  0  0  0
 55 56  1  0  0  0  0
 56 57  1  0  0  0  0
 56 61  1  0  0  0  0
 56130  1  1  0  0  0
 57 58  1  0  0  0  0
 57 66  1  0  0  0  0
 57131  1  6  0  0  0
 58 59  1  0  0  0  0
 58 65  1  0  0  0  0
 58132  1  1  0  0  0
 59 60  1  0  0  0  0
 59 64  1  0  0  0  0
 59133  1  6  0  0  0
 60 61  1  0  0  0  0
 60 62  1  0  0  0  0
 60134  1  1  0  0  0
 62 63  1  0  0  0  0
 62135  1  0  0  0  0
 62136  1  0  0  0  0
 63137  1  0  0  0  0
 64138  1  0  0  0  0
 65139  1  0  0  0  0
 66140  1  0  0  0  0
 67141  1  0  0  0  0
 68142  1  0  0  0  0
 69143  1  0  0  0  0
 69144  1  0  0  0  0
 69145  1  0  0  0  0
 70146  1  0  0  0  0
 70147  1  0  0  0  0
 70148  1  0  0  0  0
 71149  1  0  0  0  0
 71150  1  0  0  0  0
 71151  1  0  0  0  0
 72 73  1  0  0  0  0
 73152  1  0  0  0  0
 73153  1  0  0  0  0
M  END
$$$$
