
 OpenBabel03102508543D

 69 73  0  0  1  0  0  0  0  0999 V2000
   -0.2652   10.7142    3.2543 C   0  0  0  0  0  0  0  0  0  0  0  0
    0.0248   12.1111    3.4508 C   0  0  0  0  0  0  0  0  0  0  0  0
    1.2464   12.5083    4.1022 C   0  0  0  0  0  0  0  0  0  0  0  0
    2.1779   11.5085    4.5570 C   0  0  0  0  0  0  0  0  0  0  0  0
    1.8879   10.1116    4.3605 C   0  0  0  0  0  0  0  0  0  0  0  0
   -1.4867   10.3170    2.6030 C   0  0  0  0  0  0  0  0  0  0  0  0
   -1.7928    8.8427    2.3956 C   0  0  0  0  0  0  0  0  0  0  0  0
   -2.9467    8.4675    1.7803 C   0  0  0  0  0  0  0  0  0  0  0  0
   -3.2528    6.9931    1.5730 C   0  0  0  0  0  0  0  0  0  0  0  0
   -2.4307    6.1109    1.9743 O   0  0  0  0  0  0  0  0  0  0  0  0
   -4.4572    6.6015    0.9307 O   0  0  0  0  0  0  0  0  0  0  0  0
   -4.7431    5.2242    0.7370 C   0  0  0  0  0  0  0  0  0  0  0  0
   -6.0837    5.0795    0.0354 C   0  0  2  0  0  0  0  0  0  0  0  0
   -7.4704    9.3488   -2.3344 C   0  0  2  0  0  0  0  0  0  0  0  0
   -7.9770    8.5996   -1.1127 C   0  0  1  0  0  0  0  0  0  0  0  0
   -7.4704    7.1670   -1.1507 C   0  0  2  0  0  0  0  0  0  0  0  0
   -7.9770    6.4179    0.0709 C   0  0  1  0  0  0  0  0  0  0  0  0
   -7.5037    5.0795    0.0354 O   0  0  0  0  0  0  0  0  0  0  0  0
   -7.5037    7.0563    1.2477 O   0  0  0  0  0  0  0  0  0  0  0  0
   -7.8789    8.4100    1.4555 C   0  0  0  0  0  0  0  0  0  0  0  0
   -8.5805    9.1292    0.4237 C   0  0  0  0  0  0  0  0  0  0  0  0
   -8.8806    8.5186   -0.7370 O   0  0  0  0  0  0  0  0  0  0  0  0
   -8.5251    7.2359   -0.9339 C   0  0  0  0  0  0  0  0  0  0  0  0
   -8.8463    6.5823   -2.1764 C   0  0  0  0  0  0  0  0  0  0  0  0
   -8.4658    5.2093   -2.3871 C   0  0  0  0  0  0  0  0  0  0  0  0
   -7.7641    4.4900   -1.3554 C   0  0  0  0  0  0  0  0  0  0  0  0
   -7.4429    5.1437   -0.1129 C   0  0  0  0  0  0  0  0  0  0  0  0
   -7.8234    6.5167    0.0978 C   0  0  0  0  0  0  0  0  0  0  0  0
   -7.5577    9.0636    2.6979 C   0  0  0  0  0  0  0  0  0  0  0  0
   -6.9385    8.4289    3.6084 O   0  0  0  0  0  0  0  0  0  0  0  0
   -6.7511    4.4345    0.9044 O   0  0  0  0  0  0  0  0  0  0  0  0
   -8.7824    4.5648   -3.6121 O   0  0  0  0  0  0  0  0  0  0  0  0
   -8.9821   10.5783    0.6461 C   0  0  0  0  0  0  0  0  0  0  0  0
   -9.6838   11.2975   -0.3856 C   0  0  0  0  0  0  0  0  0  0  0  0
  -10.0643   12.6705   -0.1749 C   0  0  0  0  0  0  0  0  0  0  0  0
  -10.7660   13.3897   -1.2066 C   0  0  0  0  0  0  0  0  0  0  0  0
  -11.0871   12.7361   -2.4491 C   0  0  0  0  0  0  0  0  0  0  0  0
   -8.6610   11.2319    1.8886 C   0  0  0  0  0  0  0  0  0  0  0  0
  -11.1411   14.7434   -0.9988 O   0  0  0  0  0  0  0  0  0  0  0  0
   -6.0504    7.1670   -1.1507 O   0  0  0  0  0  0  0  0  0  0  0  0
   -7.5037    9.2380    0.0640 O   0  0  0  0  0  0  0  0  0  0  0  0
   -8.1157   10.2647   -3.2068 O   0  0  0  0  0  0  0  0  0  0  0  0
    1.5323   13.8857    4.2959 O   0  0  0  0  0  0  0  0  0  0  0  0
    0.4023    9.9978    3.5803 H   0  0  0  0  0  0  0  0  0  0  0  0
   -0.6427   12.8275    3.1249 H   0  0  0  0  0  0  0  0  0  0  0  0
    3.0532   11.7931    5.0237 H   0  0  0  0  0  0  0  0  0  0  0  0
    2.4424    9.2819    4.6237 H   0  0  0  0  0  0  0  0  0  0  0  0
   -1.1253    8.1263    2.7215 H   0  0  0  0  0  0  0  0  0  0  0  0
   -3.6142    9.1839    1.4544 H   0  0  0  0  0  0  0  0  0  0  0  0
   -4.7819    4.7309    1.6857 H   0  0  0  0  0  0  0  0  0  0  0  0
   -3.9763    4.7815    0.1363 H   0  0  0  0  0  0  0  0  0  0  0  0
   -5.6712    4.0923    0.0410 H   0  0  0  0  0  0  0  0  0  0  0  0
   -6.9613   10.0303   -2.9835 H   0  0  0  0  0  0  0  0  0  0  0  0
   -9.0470    8.5996   -1.1127 H   0  0  0  0  0  0  0  0  0  0  0  0
   -7.8270    6.6860   -2.0375 H   0  0  0  0  0  0  0  0  0  0  0  0
   -9.0470    6.4179    0.0709 H   0  0  0  0  0  0  0  0  0  0  0  0
   -9.3491    7.0977   -2.9157 H   0  0  0  0  0  0  0  0  0  0  0  0
   -7.4914    3.5062   -1.5064 H   0  0  0  0  0  0  0  0  0  0  0  0
   -6.5036    3.5413    0.7673 H   0  0  0  0  0  0  0  0  0  0  0  0
   -9.2389    5.0328   -4.2834 H   0  0  0  0  0  0  0  0  0  0  0  0
   -9.9139   10.8291   -1.2759 H   0  0  0  0  0  0  0  0  0  0  0  0
   -9.8342   13.1389    0.7154 H   0  0  0  0  0  0  0  0  0  0  0  0
  -11.4742   12.6440   -3.4013 H   0  0  0  0  0  0  0  0  0  0  0  0
   -8.2739   11.3240    2.8408 H   0  0  0  0  0  0  0  0  0  0  0  0
  -10.9322   15.1687   -0.1905 H   0  0  0  0  0  0  0  0  0  0  0  0
   -5.7271    7.6031   -0.3469 H   0  0  0  0  0  0  0  0  0  0  0  0
   -6.5337    9.2380    0.0640 H   0  0  0  0  0  0  0  0  0  0  0  0
   -9.0773   10.1723   -3.1188 H   0  0  0  0  0  0  0  0  0  0  0  0
    0.9263   14.5361    4.0000 H   0  0  0  0  0  0  0  0  0  0  0  0
  1  2  2  0  0  0  0
  1  6  1  0  0  0  0
  1 44  1  0  0  0  0
  2  3  1  0  0  0  0
  2 45  1  0  0  0  0
  3  4  2  0  0  0  0
  3 43  1  0  0  0  0
  4  5  1  0  0  0  0
  4 46  1  0  0  0  0
  5  6  2  0  0  0  0
  5 47  1  0  0  0  0
  6  7  1  0  0  0  0
  7  8  2  0  0  0  0
  7 48  1  0  0  0  0
  8  9  1  0  0  0  0
  8 49  1  0  0  0  0
  9 10  2  0  0  0  0
  9 11  1  0  0  0  0
 11 12  1  0  0  0  0
 12 50  1  0  0  0  0
 12 51  1  0  0  0  0
 13 14  1  0  0  0  0
 13 18  1  0  0  0  0
 13 12  1  0  0  0  0
 13 52  1  6  0  0  0
 14 15  1  0  0  0  0
 14 42  1  0  0  0  0
 14 53  1  1  0  0  0
 15 16  1  0  0  0  0
 15 41  1  0  0  0  0
 15 54  1  6  0  0  0
 16 17  1  0  0  0  0
 16 40  1  0  0  0  0
 16 55  1  6  0  0  0
 17 18  1  0  0  0  0
 17 19  1  0  0  0  0
 17 56  1  1  0  0  0
 19 20  1  0  0  0  0
 20 21  2  0  0  0  0
 20 29  1  0  0  0  0
 21 22  1  0  0  0  0
 21 33  1  0  0  0  0
 22 23  1  0  0  0  0
 23 24  2  0  0  0  0
 23 28  1  0  0  0  0
 24 25  1  0  0  0  0
 24 57  1  0  0  0  0
 25 26  2  0  0  0  0
 25 32  1  0  0  0  0
 26 27  1  0  0  0  0
 26 58  1  0  0  0  0
 27 28  2  0  0  0  0
 27 31  1  0  0  0  0
 28 29  1  0  0  0  0
 29 30  2  0  0  0  0
 31 59  1  0  0  0  0
 32 60  1  0  0  0  0
 33 34  2  0  0  0  0
 33 38  1  0  0  0  0
 34 35  1  0  0  0  0
 34 61  1  0  0  0  0
 35 36  2  0  0  0  0
 35 62  1  0  0  0  0
 36 37  1  0  0  0  0
 36 39  1  0  0  0  0
 37 38  2  0  0  0  0
 37 63  1  0  0  0  0
 38 64  1  0  0  0  0
 39 65  1  0  0  0  0
 40 66  1  0  0  0  0
 41 67  1  0  0  0  0
 42 68  1  0  0  0  0
 43 69  1  0  0  0  0
M  END
$$$$
