
 OpenBabel03102508543D

 69 74  0  0  1  0  0  0  0  0999 V2000
    2.5910   -0.1249   -1.4204 C   0  0  0  0  0  0  0  0  0  0  0  0
    2.4776    0.0196    0.0884 C   0  0  2  0  0  0  0  0  0  0  0  0
    4.8776    1.7466    3.3842 C   0  0  0  0  0  0  0  0  0  0  0  0
    4.3709    0.3677    3.7746 C   0  0  0  0  0  0  0  0  0  0  0  0
    4.8776   -0.6599    2.7757 C   0  0  2  0  0  0  0  0  0  0  0  0
    6.3976   -0.6599    2.7757 C   0  0  2  0  0  0  0  0  0  0  0  0
    6.9043    0.7190    2.3853 C   0  0  1  0  0  0  0  0  0  0  0  0
   -5.0337   -0.7884    4.4570 C   0  0  1  0  0  0  0  0  0  0  0  0
    4.4043   -1.9480    3.1404 O   0  0  0  0  0  0  0  0  0  0  0  0
   -3.6890   -1.1672    5.0558 C   0  0  0  0  0  0  0  0  0  0  0  0
   -2.6124   -1.0670    3.9876 C   0  0  2  0  0  0  0  0  0  0  0  0
    6.3976    1.0703    0.9959 C   0  0  2  0  0  0  0  0  0  0  0  0
    4.8776    1.0703    0.9959 C   0  0  0  0  0  0  0  0  0  0  0  0
    4.2421    2.1293    0.6960 O   0  0  0  0  0  0  0  0  0  0  0  0
    4.1176   -0.1963    1.3546 C   0  0  0  0  0  0  0  0  0  0  0  0
    2.6232    0.0710    1.2789 C   0  0  1  0  0  0  0  0  0  0  0  0
   -1.2677   -1.4459    4.5864 C   0  0  1  0  0  0  0  0  0  0  0  0
   -0.1910   -1.3457    3.5182 C   0  0  0  0  0  0  0  0  0  0  0  0
    1.1537   -1.7245    4.1170 C   0  0  0  0  0  0  0  0  0  0  0  0
    2.2304   -1.6244    3.0488 C   0  0  0  0  0  0  0  0  0  0  0  0
    3.5226   -1.9184    3.3558 C   0  0  0  0  0  0  0  0  0  0  0  0
    3.8898   -2.3472    4.7671 C   0  0  0  0  0  0  0  0  0  0  0  0
    2.9896   -2.4310    5.6603 O   0  0  0  0  0  0  0  0  0  0  0  0
    5.3337   -2.6758    5.1101 C   0  0  0  0  0  0  0  0  0  0  0  0
    2.2304   -2.3006    0.6605 C   0  0  0  0  0  0  0  0  0  0  0  0
    1.8632   -1.1956    1.6375 C   0  0  2  0  0  0  0  0  0  0  0  0
    0.3688   -0.9283    1.5618 C   0  0  0  0  0  0  0  0  0  0  0  0
    6.9043    2.4492    0.6055 C   0  0  0  0  0  0  0  0  0  0  0  0
    6.9043   -1.6874    1.7768 C   0  0  0  0  0  0  0  0  0  0  0  0
    4.4043   -0.3317    1.4778 O   0  0  0  0  0  0  0  0  0  0  0  0
    2.9843   -0.3317    1.4778 C   0  0  0  0  0  0  0  0  0  0  0  0
    1.8305    0.4609   -1.8930 H   0  0  0  0  0  0  0  0  0  0  0  0
    2.4686   -1.1531   -1.6904 H   0  0  0  0  0  0  0  0  0  0  0  0
    3.5537    0.2156   -1.7400 H   0  0  0  0  0  0  0  0  0  0  0  0
    1.6027   -0.0391   -0.5247 H   0  0  0  0  0  0  0  0  0  0  0  0
    4.4862    2.5958    3.9044 H   0  0  0  0  0  0  0  0  0  0  0  0
    5.8691    2.1488    3.3852 H   0  0  0  0  0  0  0  0  0  0  0  0
    3.3009    0.3677    3.7746 H   0  0  0  0  0  0  0  0  0  0  0  0
    4.7276    0.1204    4.7526 H   0  0  0  0  0  0  0  0  0  0  0  0
    6.7543   -0.9072    3.7537 H   0  0  0  0  0  0  0  0  0  0  0  0
    7.8341    1.1711    2.6609 H   0  0  0  0  0  0  0  0  0  0  0  0
   -6.0993   -0.6960    4.4243 H   0  0  0  0  0  0  0  0  0  0  0  0
   -3.7330   -2.1706    5.4249 H   0  0  0  0  0  0  0  0  0  0  0  0
   -3.4564   -0.5011    5.8602 H   0  0  0  0  0  0  0  0  0  0  0  0
   -3.4801   -0.9918    3.3661 H   0  0  0  0  0  0  0  0  0  0  0  0
    4.3761   -0.4981    2.3480 H   0  0  0  0  0  0  0  0  0  0  0  0
    4.3761   -0.9741    0.6668 H   0  0  0  0  0  0  0  0  0  0  0  0
    2.7886    0.9367    0.6722 H   0  0  0  0  0  0  0  0  0  0  0  0
   -1.5794   -1.7834    5.5528 H   0  0  0  0  0  0  0  0  0  0  0  0
   -0.1471   -0.3423    3.1490 H   0  0  0  0  0  0  0  0  0  0  0  0
   -0.4236   -2.0118    2.7138 H   0  0  0  0  0  0  0  0  0  0  0  0
    1.1098   -2.7279    4.4862 H   0  0  0  0  0  0  0  0  0  0  0  0
    1.3863   -1.0584    4.9214 H   0  0  0  0  0  0  0  0  0  0  0  0
    4.2537   -1.8504    2.6305 H   0  0  0  0  0  0  0  0  0  0  0  0
    5.6269   -3.6148    5.5310 H   0  0  0  0  0  0  0  0  0  0  0  0
    6.2079   -2.2603    5.5664 H   0  0  0  0  0  0  0  0  0  0  0  0
    1.5128   -3.0731    0.4784 H   0  0  0  0  0  0  0  0  0  0  0  0
    2.5038   -2.2494   -0.3727 H   0  0  0  0  0  0  0  0  0  0  0  0
    0.1103   -0.6265    0.5684 H   0  0  0  0  0  0  0  0  0  0  0  0
    0.1103   -0.1504    2.2496 H   0  0  0  0  0  0  0  0  0  0  0  0
   -0.1662   -1.8199    1.8143 H   0  0  0  0  0  0  0  0  0  0  0  0
    7.9743    2.4492    0.6055 H   0  0  0  0  0  0  0  0  0  0  0  0
    6.5476    3.1725    1.3087 H   0  0  0  0  0  0  0  0  0  0  0  0
    6.5476    2.6965   -0.3725 H   0  0  0  0  0  0  0  0  0  0  0  0
    6.5476   -1.4401    0.7988 H   0  0  0  0  0  0  0  0  0  0  0  0
    6.5476   -2.6580    2.0516 H   0  0  0  0  0  0  0  0  0  0  0  0
    7.9743   -1.6874    1.7768 H   0  0  0  0  0  0  0  0  0  0  0  0
    2.6276    0.3917    2.1809 H   0  0  0  0  0  0  0  0  0  0  0  0
    2.6276   -1.3023    1.7526 H   0  0  0  0  0  0  0  0  0  0  0  0
  1 32  1  0  0  0  0
  1 33  1  0  0  0  0
  1 34  1  0  0  0  0
  2  3  1  0  0  0  0
  2 31  1  0  0  0  0
  2  1  1  0  0  0  0
  2 35  1  1  0  0  0
  3  4  1  0  0  0  0
  3 36  1  0  0  0  0
  3 37  1  0  0  0  0
  4  5  1  0  0  0  0
  4 38  1  0  0  0  0
  4 39  1  0  0  0  0
  5  6  1  0  0  0  0
  5  9  1  6  0  0  0
  5 30  1  0  0  0  0
  6  7  1  0  0  0  0
  6 29  1  0  0  0  0
  6 40  1  1  0  0  0
  7  8  1  0  0  0  0
  7 12  1  0  0  0  0
  7 41  1  6  0  0  0
  8  9  1  0  0  0  0
  8 10  1  0  0  0  0
  8 42  1  6  0  0  0
 10 11  1  0  0  0  0
 10 43  1  0  0  0  0
 10 44  1  0  0  0  0
 11 12  1  0  0  0  0
 11 17  1  0  0  0  0
 11 45  1  1  0  0  0
 12 13  1  0  0  0  0
 12 28  1  1  0  0  0
 13 14  2  0  0  0  0
 13 15  1  0  0  0  0
 15 16  1  0  0  0  0
 15 46  1  0  0  0  0
 15 47  1  0  0  0  0
 16 17  1  0  0  0  0
 16 26  1  0  0  0  0
 16 48  1  1  0  0  0
 17 18  1  0  0  0  0
 17 49  1  6  0  0  0
 18 19  1  0  0  0  0
 18 50  1  0  0  0  0
 18 51  1  0  0  0  0
 19 20  1  0  0  0  0
 19 52  1  0  0  0  0
 19 53  1  0  0  0  0
 20 21  2  0  0  0  0
 20 26  1  0  0  0  0
 21 22  1  0  0  0  0
 21 54  1  0  0  0  0
 22 23  2  0  0  0  0
 22 24  1  0  0  0  0
 24 25  1  0  0  0  0
 24 55  1  0  0  0  0
 24 56  1  0  0  0  0
 25 26  1  0  0  0  0
 25 57  1  0  0  0  0
 25 58  1  0  0  0  0
 26 27  1  6  0  0  0
 27 59  1  0  0  0  0
 27 60  1  0  0  0  0
 27 61  1  0  0  0  0
 28 62  1  0  0  0  0
 28 63  1  0  0  0  0
 28 64  1  0  0  0  0
 29 65  1  0  0  0  0
 29 66  1  0  0  0  0
 29 67  1  0  0  0  0
 30 31  1  0  0  0  0
 31 68  1  0  0  0  0
 31 69  1  0  0  0  0
M  END
$$$$
