
 OpenBabel03102508543D

 12 12  0  0  0  0  0  0  0  0999 V2000
    1.0734    0.0505    0.0453 C   0  0  0  0  0  0  0  0  0  0  0  0
    2.5934    0.0505    0.0453 C   0  0  0  0  0  0  0  0  0  0  0  0
    3.1001    0.2085    1.4697 C   0  0  0  0  0  0  0  0  0  0  0  0
    2.2742    0.3149    2.4298 O   0  0  0  0  0  0  0  0  0  0  0  0
    4.5453    0.2381    1.7367 N   0  0  0  0  0  0  0  0  0  0  0  0
    0.5668   -0.1074   -1.3790 C   0  0  0  0  0  0  0  0  0  0  0  0
   -0.6827   -0.1330   -1.6098 O   0  0  0  0  0  0  0  0  0  0  0  0
    0.7168    0.9745    0.4504 H   0  0  0  0  0  0  0  0  0  0  0  0
    0.7167   -0.7622    0.6429 H   0  0  0  0  0  0  0  0  0  0  0  0
    2.9501    0.8633   -0.5523 H   0  0  0  0  0  0  0  0  0  0  0  0
    2.9501   -0.8734   -0.3597 H   0  0  0  0  0  0  0  0  0  0  0  0
    5.4420    0.2828    2.1406 H   0  0  0  0  0  0  0  0  0  0  0  0
  1  2  1  0  0  0  0
  1  6  1  0  0  0  0
  1  8  1  0  0  0  0
  1  9  1  0  0  0  0
  2  3  1  0  0  0  0
  2 10  1  0  0  0  0
  2 11  1  0  0  0  0
  3  4  2  0  0  0  0
  3  5  1  0  0  0  0
  5  6  1  0  0  0  0
  5 12  1  0  0  0  0
  6  7  2  0  0  0  0
M  END
$$$$
