
 OpenBabel03102508543D

 32 34  0  0  0  0  0  0  0  0999 V2000
    1.0299    0.0464   -0.0834 C   0  0  0  0  0  0  0  0  0  0  0  0
    2.4701    0.0464   -0.0834 C   0  0  0  0  0  0  0  0  0  0  0  0
    3.1902   -0.7868   -1.0116 C   0  0  0  0  0  0  0  0  0  0  0  0
    2.4701   -1.6199   -1.9398 C   0  0  0  0  0  0  0  0  0  0  0  0
    3.1902   -2.4530   -2.8679 C   0  0  0  0  0  0  0  0  0  0  0  0
    0.3098    0.8795    0.8448 C   0  0  0  0  0  0  0  0  0  0  0  0
   -1.2102    0.8795    0.8448 C   0  0  0  0  0  0  0  0  0  0  0  0
   -1.9303    1.7126    1.7730 C   0  0  0  0  0  0  0  0  0  0  0  0
   -1.2102    2.5458    2.7012 C   0  0  0  0  0  0  0  0  0  0  0  0
   -1.8456    3.2810    3.5202 O   0  0  0  0  0  0  0  0  0  0  0  0
    0.2300    2.5458    2.7012 C   0  0  0  0  0  0  0  0  0  0  0  0
    0.9501    3.3789    3.6293 C   0  0  0  0  0  0  0  0  0  0  0  0
    0.2300    4.2120    4.5575 C   0  0  0  0  0  0  0  0  0  0  0  0
   -1.2102    4.2120    4.5575 C   0  0  0  0  0  0  0  0  0  0  0  0
   -1.9303    3.3789    3.6293 C   0  0  0  0  0  0  0  0  0  0  0  0
    0.9501    1.7126    1.7730 C   0  0  0  0  0  0  0  0  0  0  0  0
   -1.8829    0.1012   -0.0223 O   0  0  0  0  0  0  0  0  0  0  0  0
   -1.9202    5.0335    5.4727 O   0  0  0  0  0  0  0  0  0  0  0  0
    2.3701    3.3789    3.6293 O   0  0  0  0  0  0  0  0  0  0  0  0
   -3.3503    1.7126    1.7730 O   0  0  0  0  0  0  0  0  0  0  0  0
    1.0501   -1.6199   -1.9398 O   0  0  0  0  0  0  0  0  0  0  0  0
    4.6102   -0.7868   -1.0116 O   0  0  0  0  0  0  0  0  0  0  0  0
    0.5139   -0.5506   -0.7485 H   0  0  0  0  0  0  0  0  0  0  0  0
    2.9861    0.6434    0.5817 H   0  0  0  0  0  0  0  0  0  0  0  0
    3.7062   -3.0500   -3.5330 H   0  0  0  0  0  0  0  0  0  0  0  0
    0.7460    4.8090    5.2226 H   0  0  0  0  0  0  0  0  0  0  0  0
   -2.9480    3.2645    3.5019 H   0  0  0  0  0  0  0  0  0  0  0  0
   -1.4517    5.5755    6.0766 H   0  0  0  0  0  0  0  0  0  0  0  0
    2.8386    2.8369    3.0255 H   0  0  0  0  0  0  0  0  0  0  0  0
   -3.8188    1.1706    1.1691 H   0  0  0  0  0  0  0  0  0  0  0  0
    0.5816   -1.0779   -1.3359 H   0  0  0  0  0  0  0  0  0  0  0  0
    5.0787   -0.2447   -0.4077 H   0  0  0  0  0  0  0  0  0  0  0  0
  1  2  2  0  0  0  0
  1  6  1  0  0  0  0
  1 23  1  0  0  0  0
  2  3  1  0  0  0  0
  2 24  1  0  0  0  0
  3  4  2  0  0  0  0
  3 22  1  0  0  0  0
  4  5  1  0  0  0  0
  4 21  1  0  0  0  0
  5  6  2  0  0  0  0
  5 25  1  0  0  0  0
  6  7  1  0  0  0  0
  7  8  2  0  0  0  0
  7 17  1  0  0  0  0
  8  9  1  0  0  0  0
  8 20  1  0  0  0  0
  9 10  2  0  0  0  0
  9 11  1  0  0  0  0
 11 12  2  0  0  0  0
 11 16  1  0  0  0  0
 12 13  1  0  0  0  0
 12 19  1  0  0  0  0
 13 14  2  0  0  0  0
 13 26  1  0  0  0  0
 14 15  1  0  0  0  0
 14 18  1  0  0  0  0
 15 16  2  0  0  0  0
 15 27  1  0  0  0  0
 16 17  1  0  0  0  0
 18 28  1  0  0  0  0
 19 29  1  0  0  0  0
 20 30  1  0  0  0  0
 21 31  1  0  0  0  0
 22 32  1  0  0  0  0
M  END
$$$$
